Version 4
SHEET 1 880 760
WIRE -592 -144 -592 -176
WIRE 176 -32 176 -144
WIRE 176 -32 64 -32
WIRE 528 -32 176 -32
WIRE -592 -16 -592 -64
WIRE 528 -16 528 -32
WIRE 176 0 176 -32
WIRE -304 48 -592 48
WIRE -160 48 -224 48
WIRE 64 48 64 -32
WIRE 64 48 32 48
WIRE -592 64 -592 48
WIRE 176 96 176 64
WIRE 528 96 528 64
WIRE 528 96 176 96
WIRE 64 112 32 112
WIRE 176 128 176 96
WIRE -160 144 -192 144
WIRE 48 144 32 144
WIRE -592 192 -592 144
WIRE -592 192 -608 192
WIRE 64 208 64 112
WIRE 112 208 64 208
WIRE 128 208 112 208
WIRE 64 240 64 208
WIRE 64 336 64 320
WIRE 176 336 176 224
FLAG -592 -176 VCC
FLAG 176 -144 VCC
FLAG 176 96 VD
FLAG -592 192 0
FLAG -192 144 0
FLAG 112 208 G
FLAG -592 -16 0
FLAG 176 336 0
FLAG 64 336 0
SYMBOL res 512 -32 R0
SYMATTR InstName RC
SYMATTR Value {carga}
SYMBOL voltage -592 48 R0
WINDOW 123 0 0 Left 2
WINDOW 39 0 0 Left 2
WINDOW 0 -77 54 Left 2
WINDOW 3 -203 191 Left 2
SYMATTR InstName V1
SYMATTR Value PULSE(0 5 1n 1n 1n 50u 100u)
SYMBOL voltage -592 -160 R0
SYMATTR InstName V2
SYMATTR Value 24
SYMBOL nmos 128 128 R0
SYMATTR InstName M1
SYMATTR Value irfz48n
SYMATTR Prefix X
SYMBOL res 48 224 R0
WINDOW 0 44 42 Left 2
WINDOW 3 40 72 Left 2
SYMATTR InstName R1
SYMATTR Value 690
SYMBOL diode 192 64 R180
WINDOW 0 -49 43 Left 2
WINDOW 3 -97 18 Left 2
SYMATTR InstName D1
SYMATTR Value 1N5408
SYMBOL res -208 32 R90
WINDOW 0 0 56 VBottom 2
WINDOW 3 32 56 VTop 2
SYMATTR InstName R3
SYMATTR Value 220
SYMBOL Optos\\4N25 -64 112 R0
SYMATTR InstName U1
TEXT 152 312 Left 2 !;op
TEXT -384 400 Left 2 !.include "irfz48n.spi"
TEXT -784 392 Left 2 !.tran 0 500u 0 0.1u
TEXT -384 432 Left 2 !.MODEL 1N5408 D  ( IS=63.0n RS=14.1m BV=1.00k IBV=10.0u \n+                     CJO=53.0p  M=0.333 N=1.70 TT=4.32u )
TEXT -784 424 Left 2 !.param carga=1.2
TEXT -88 -256 Left 2 ;Controlador
TEXT 544 -128 Left 2 ;Carga
TEXT -808 8 Left 2 ;Señal digital
RECTANGLE Normal 416 496 -416 -224 2
RECTANGLE Normal 704 176 464 -96 2
RECTANGLE Normal -816 32 -432 272 2
